data_L_13  
_audit_creation_date              2014-09-12
_audit_creation_method            'Materials Studio'
_symmetry_space_group_name_H-M    'P1'
_symmetry_Int_Tables_number       1
_symmetry_cell_setting            triclinic
loop_
_symmetry_equiv_pos_as_xyz
  x,y,z
_cell_length_a                    10.0000
_cell_length_b                    10.0000
_cell_length_c                    10.0000
_cell_angle_alpha                 90.0000
_cell_angle_beta                  90.0000
_cell_angle_gamma                 90.0000
loop_
_atom_site_label
_atom_site_type_symbol
_atom_site_fract_x
_atom_site_fract_y
_atom_site_fract_z
_atom_site_U_iso_or_equiv
_atom_site_adp_type
_atom_site_occupancy
N1     N    -0.15400   0.00000   0.00000   0.00000  Uiso   1.00
X2     C    -0.07700  -0.13337   0.00000   0.00000  Uiso   1.00
N3     N     0.07700  -0.13337   0.00000   0.00000  Uiso   1.00
N4     N     0.15400   0.00000   0.00000   0.00000  Uiso   1.00
X5     C     0.07700   0.13337   0.00000   0.00000  Uiso   1.00
N6     N    -0.07700   0.13337   0.00000   0.00000  Uiso   1.00
loop_
_geom_bond_atom_site_label_1
_geom_bond_atom_site_label_2
_geom_bond_distance
_geom_bond_site_symmetry_2
_ccdc_geom_bond_type
N1     X2      1.540   .     A
N1     N6      1.540   .     A
X2     N3      1.540   .     A
N3     N4      1.540   .     A
N4     X5      1.540   .     A
X5     N6      1.540   .     A