data_L_9
_audit_creation_date              2014-09-12
_audit_creation_method            'Materials Studio'
_symmetry_space_group_name_H-M    'P1'
_symmetry_Int_Tables_number       1
_symmetry_cell_setting            triclinic
loop_
_symmetry_equiv_pos_as_xyz
  x,y,z
_cell_length_a                    20.0000
_cell_length_b                    20.0000
_cell_length_c                    20.0000
_cell_angle_alpha                 90.0000
_cell_angle_beta                  90.0000
_cell_angle_gamma                 90.0000
loop_
_atom_site_label
_atom_site_type_symbol
_atom_site_fract_x
_atom_site_fract_y
_atom_site_fract_z
_atom_site_U_iso_or_equiv
_atom_site_adp_type
_atom_site_occupancy
C1     C    -0.07700  -0.00000   0.00000   0.00000  Uiso   1.00
C2     C    -0.03850  -0.06668   0.00000   0.00000  Uiso   1.00
X3     C     0.03850  -0.06668   0.00000   0.00000  Uiso   1.00
C4     C     0.07700  -0.00000  -0.00000   0.00000  Uiso   1.00
C5     C     0.03850   0.06668  -0.00000   0.00000  Uiso   1.00
X6     C    -0.03850   0.06668  -0.00000   0.00000  Uiso   1.00
C7     C     0.07700   0.13337  -0.00000   0.00000  Uiso   1.00
N8     N     0.15400   0.13337  -0.00000   0.00000  Uiso   1.00
N9     N     0.19250   0.06668  -0.00000   0.00000  Uiso   1.00
C10    C     0.15400  -0.00000  -0.00000   0.00000  Uiso   1.00
H11    H    -0.13400  -0.00000   0.00000   0.00000  Uiso   1.00
H12    H    -0.06700  -0.11605   0.00000   0.00000  Uiso   1.00
H13    H     0.04850   0.18273  -0.00000   0.00000  Uiso   1.00
H14    H     0.18250  -0.04936  -0.00000   0.00000  Uiso   1.00
loop_
_geom_bond_atom_site_label_1
_geom_bond_atom_site_label_2
_geom_bond_distance
_geom_bond_site_symmetry_2
_ccdc_geom_bond_type
C1     C2      1.540   .     A
C1     X6      1.540   .     A
C1     H11     1.140   .     S
C2     X3      1.540   .     A
C2     H12     1.140   .     S
X3     C4      1.540   .     A
C4     C5      1.540   .     A
C4     C10     1.540   .     A
C5     X6      1.540   .     A
C5     C7      1.540   .     A
C7     N8      1.540   .     A
C7     H13     1.140   .     S
N8     N9      1.540   .     A
N9     C10     1.540   .     A
C10    H14     1.140   .     S